Warning: no access to tty (Bad file descriptor).
Thus no job control in this shell.
/global/scratch/sd/whitaker/testens/2013060306 ~ 
aprun -n 120 -N 4 -S 2 -d 1 /project/projectdirs/incite11/whitaker/edison/newstuff/bin/global_enkf
 running on          120  processors ...


* . * . * . * . * . * . * . * . * . * . * . * . * . * . * . * . * . * . * . * . 
     PROGRAM ENKF_ANL HAS BEGUN. COMPILED 2011319.50     ORG: NP25
     STARTING DATE-TIME  JUN 14,2013  13:57:35.924  165  FRI   2456458


 number of satellite radiance files used          59
 number of satellite ozone files used           7
 namelist parameters:
 --------------------
 &NAM_ENKF
 DATESTRING      = 2013060306,
 DATAPATH        = /global/scratch/sd/whitaker/testens/2013060306/                                                                   
                                                                                                                                     
                                                                                                                                     
                                                                                                                           ,
 IASSIM_ORDER    =           0,
 COVINFLATEMAX   =   100.0000    ,
 COVINFLATEMIN   =   1.000000    ,
 DETERMINISTIC   = T,
 SORTINC = T,
 CORRLENGTHNH    =   1600.000    ,
 CORRLENGTHTR    =   1600.000    ,
 CORRLENGTHSH    =   1600.000    ,
 VARQC   = F,
 HUBER   = F,
 NLONS   =        1152,
 NLATS   =         576,
 SMOOTHPARM      =   35.00000    ,
 READIN_LOCALIZATION     = T,
 ZHUBERLEFT      =  1.0000000E+10,
 ZHUBERRIGHT     =  1.0000000E+10,
 OBTIMELNH       =  1.0000000E+30,
 OBTIMELTR       =  1.0000000E+30,
 OBTIMELSH       =  1.0000000E+30,
 REDUCEDGRID     = F,
 LNSIGCUTOFFNH   =   1.100000    ,
 LNSIGCUTOFFTR   =   1.100000    ,
 LNSIGCUTOFFSH   =   1.100000    ,
 LNSIGCUTOFFSATNH        =   3.300000    ,
 LNSIGCUTOFFSATTR        =   3.300000    ,
 LNSIGCUTOFFSATSH        =   3.300000    ,
 LNSIGCUTOFFPSNH =   1.500000    ,
 LNSIGCUTOFFPSTR =   1.500000    ,
 LNSIGCUTOFFPSSH =   1.500000    ,
 ANALPERTWTNH    =  0.7500000    ,
 ANALPERTWTSH    =  0.7500000    ,
 ANALPERTWTTR    =  0.7500000    ,
 SPRD_TOL        =  1.0000000E+30,
 NLEVS   =          64,
 NANALS  =          80,
 NVARS   =           5,
 SATERRFACT      =   1.000000    ,
 UNIVAROZ        = T,
 WRF_REGIONAL    = F,
 PAOVERPB_THRESH =  0.9900000    ,
 LATBOUND        =   25.00000    ,
 DELAT   =   10.00000    ,
 PSEUDO_RH       = T,
 NUMITER =           2,
 BIASVAR =  0.1000000    ,
 LUPD_SATBIASC   = T,
 CLIPTRACERS     = T,
 SIMPLE_PARTITION        = T,
 ADP_ANGLEBC     = F,
 ANGORD  =           0,
 IAU     = F,
 NHR_ANAL        =           6,
 LETKF_FLAG      = F,
 BOXSIZE =   90.00000    ,
 MASSBAL_ADJUST  = T,
 USE_HEIGHT      = F
 /
 --------------------
 /global/scratch/sd/whitaker/testens/2013060306/
 analysis time 2013060306
          80  members
 first-guess forecast hour for analysis = 06
 add ps tend as analysis var, so mass balance adjustment can be done
           5 3d vars to update
 total of         322  2d grids will be updated (including ps and ps tend)
 using multiplicative inflation based on Pa/Pb
[SHTns 2.3] build Mar  5 2013, 12:23:09, id: 
        Lmax=574, Mmax*Mres=574, Mres=1, Nlm=165600  [1 threads, no Condon-Shortley phase, 4.pi normalized]
        => using FFTW : Mmax=574, Nphi=1152, Nlat=576  (data layout : phi_inc=1, theta_inc=1152, phi_embed=1152)
[SHTns 2.3] build Mar  5 2013, 12:23:09, id: 
        Lmax=574, Mmax*Mres=574, Mres=1, Nlm=165600  [1 threads, no Condon-Shortley phase, 4.pi normalized]
[SHTns 2.3] build Mar  5 2013, 12:23:09, id: 
        Lmax=574, Mmax*Mres=574, Mres=1, Nlm=165600  [1 threads, no Condon-Shortley phase, 4.pi normalized]
[SHTns 2.3] build Mar  5 2013, 12:23:09, id: 
        Lmax=574, Mmax*Mres=574, Mres=1, Nlm=165600  [1 threads, no Condon-Shortley phase, 4.pi normalized]
[SHTns 2.3] build Mar  5 2013, 12:23:09, id: 
        Lmax=574, Mmax*Mres=574, Mres=1, Nlm=165600  [1 threads, no Condon-Shortley phase, 4.pi normalized]
[SHTns 2.3] build Mar  5 2013, 12:23:09, id: 
        Lmax=574, Mmax*Mres=574, Mres=1, Nlm=165600  [1 threads, no Condon-Shortley phase, 4.pi normalized]
        => using FFTW : Mmax=574, Nphi=1152, Nlat=576  (data layout : phi_inc=1, theta_inc=1152, phi_embed=1152)
[SHTns 2.3] build Mar  5 2013, 12:23:09, id: 
        Lmax=574, Mmax*Mres=574, Mres=1, Nlm=165600  [1 threads, no Condon-Shortley phase, 4.pi normalized]
[SHTns 2.3] build Mar  5 2013, 12:23:09, id: 
        Lmax=574, Mmax*Mres=574, Mres=1, Nlm=165600  [1 threads, no Condon-Shortley phase, 4.pi normalized]
[SHTns 2.3] build Mar  5 2013, 12:23:09, id: 
        Lmax=574, Mmax*Mres=574, Mres=1, Nlm=165600  [1 threads, no Condon-Shortley phase, 4.pi normalized]
[SHTns 2.3] build Mar  5 2013, 12:23:09, id: 
        Lmax=574, Mmax*Mres=574, Mres=1, Nlm=165600  [1 threads, no Condon-Shortley phase, 4.pi normalized]
        => using FFTW : Mmax=574, Nphi=1152, Nlat=576  (data layout : phi_inc=1, theta_inc=1152, phi_embed=1152)
        => using FFTW : Mmax=574, Nphi=1152, Nlat=576  (data layout : phi_inc=1, theta_inc=1152, phi_embed=1152)
        => using FFTW : Mmax=574, Nphi=1152, Nlat=576  (data layout : phi_inc=1, theta_inc=1152, phi_embed=1152)
[SHTns 2.3] build Mar  5 2013, 12:23:09, id: 
        Lmax=574, Mmax*Mres=574, Mres=1, Nlm=165600  [1 threads, no Condon-Shortley phase, 4.pi normalized]
[SHTns 2.3] build Mar  5 2013, 12:23:09, id: 
        Lmax=574, Mmax*Mres=574, Mres=1, Nlm=165600  [1 threads, no Condon-Shortley phase, 4.pi normalized]
[SHTns 2.3] build Mar  5 2013, 12:23:09, id: 
        Lmax=574, Mmax*Mres=574, Mres=1, Nlm=165600  [1 threads, no Condon-Shortley phase, 4.pi normalized]
[SHTns 2.3] build Mar  5 2013, 12:23:09, id: 
        Lmax=574, Mmax*Mres=574, Mres=1, Nlm=165600  [1 threads, no Condon-Shortley phase, 4.pi normalized]
[SHTns 2.3] build Mar  5 2013, 12:23:09, id: 
        Lmax=574, Mmax*Mres=574, Mres=1, Nlm=165600  [1 threads, no Condon-Shortley phase, 4.pi normalized]
        => using FFTW : Mmax=574, Nphi=1152, Nlat=576  (data layout : phi_inc=1, theta_inc=1152, phi_embed=1152)
[SHTns 2.3] build Mar  5 2013, 12:23:09, id: 
        Lmax=574, Mmax*Mres=574, Mres=1, Nlm=165600  [1 threads, no Condon-Shortley phase, 4.pi normalized]
[SHTns 2.3] build Mar  5 2013, 12:23:09, id: 
        Lmax=574, Mmax*Mres=574, Mres=1, Nlm=165600  [1 threads, no Condon-Shortley phase, 4.pi normalized]
        => using FFTW : Mmax=574, Nphi=1152, Nlat=576  (data layout : phi_inc=1, theta_inc=1152, phi_embed=1152)
[SHTns 2.3] build Mar  5 2013, 12:23:09, id: 
        Lmax=574, Mmax*Mres=574, Mres=1, Nlm=165600  [1 threads, no Condon-Shortley phase, 4.pi normalized]
[SHTns 2.3] build Mar  5 2013, 12:23:09, id: 
        Lmax=574, Mmax*Mres=574, Mres=1, Nlm=165600  [1 threads, no Condon-Shortley phase, 4.pi normalized]
[SHTns 2.3] build Mar  5 2013, 12:23:09, id: 
        Lmax=574, Mmax*Mres=574, Mres=1, Nlm=165600  [1 threads, no Condon-Shortley phase, 4.pi normalized]
[SHTns 2.3] build Mar  5 2013, 12:23:09, id: 
        Lmax=574, Mmax*Mres=574, Mres=1, Nlm=165600  [1 threads, no Condon-Shortley phase, 4.pi normalized]
[SHTns 2.3] build Mar  5 2013, 12:23:09, id: 
        Lmax=574, Mmax*Mres=574, Mres=1, Nlm=165600  [1 threads, no Condon-Shortley phase, 4.pi normalized]
[SHTns 2.3] build Mar  5 2013, 12:23:09, id: 
        Lmax=574, Mmax*Mres=574, Mres=1, Nlm=165600  [1 threads, no Condon-Shortley phase, 4.pi normalized]
        => using FFTW : Mmax=574, Nphi=1152, Nlat=576  (data layout : phi_inc=1, theta_inc=1152, phi_embed=1152)
[SHTns 2.3] build Mar  5 2013, 12:23:09, id: 
        Lmax=574, Mmax*Mres=574, Mres=1, Nlm=165600  [1 threads, no Condon-Shortley phase, 4.pi normalized]
        => using FFTW : Mmax=574, Nphi=1152, Nlat=576  (data layout : phi_inc=1, theta_inc=1152, phi_embed=1152)
[SHTns 2.3] build Mar  5 2013, 12:23:09, id: 
        Lmax=574, Mmax*Mres=574, Mres=1, Nlm=165600  [1 threads, no Condon-Shortley phase, 4.pi normalized]
        => using FFTW : Mmax=574, Nphi=1152, Nlat=576  (data layout : phi_inc=1, theta_inc=1152, phi_embed=1152)
[SHTns 2.3] build Mar  5 2013, 12:23:09, id: 
        Lmax=574, Mmax*Mres=574, Mres=1, Nlm=165600  [1 threads, no Condon-Shortley phase, 4.pi normalized]
        => using FFTW : Mmax=574, Nphi=1152, Nlat=576  (data layout : phi_inc=1, theta_inc=1152, phi_embed=1152)
        => using FFTW : Mmax=574, Nphi=1152, Nlat=576  (data layout : phi_inc=1, theta_inc=1152, phi_embed=1152)
        => using FFTW : Mmax=574, Nphi=1152, Nlat=576  (data layout : phi_inc=1, theta_inc=1152, phi_embed=1152)
[SHTns 2.3] build Mar  5 2013, 12:23:09, id: 
        Lmax=574, Mmax*Mres=574, Mres=1, Nlm=165600  [1 threads, no Condon-Shortley phase, 4.pi normalized]
[SHTns 2.3] build Mar  5 2013, 12:23:09, id: 
        Lmax=574, Mmax*Mres=574, Mres=1, Nlm=165600  [1 threads, no Condon-Shortley phase, 4.pi normalized]
        => using FFTW : Mmax=574, Nphi=1152, Nlat=576  (data layout : phi_inc=1, theta_inc=1152, phi_embed=1152)
[SHTns 2.3] build Mar  5 2013, 12:23:09, id: 
        Lmax=574, Mmax*Mres=574, Mres=1, Nlm=165600  [1 threads, no Condon-Shortley phase, 4.pi normalized]
        => using FFTW : Mmax=574, Nphi=1152, Nlat=576  (data layout : phi_inc=1, theta_inc=1152, phi_embed=1152)
        => using FFTW : Mmax=574, Nphi=1152, Nlat=576  (data layout : phi_inc=1, theta_inc=1152, phi_embed=1152)
        => using FFTW : Mmax=574, Nphi=1152, Nlat=576  (data layout : phi_inc=1, theta_inc=1152, phi_embed=1152)
        => using FFTW : Mmax=574, Nphi=1152, Nlat=576  (data layout : phi_inc=1, theta_inc=1152, phi_embed=1152)
[SHTns 2.3] build Mar  5 2013, 12:23:09, id: 
        Lmax=574, Mmax*Mres=574, Mres=1, Nlm=165600  [1 threads, no Condon-Shortley phase, 4.pi normalized]
[SHTns 2.3] build Mar  5 2013, 12:23:09, id: 
        Lmax=574, Mmax*Mres=574, Mres=1, Nlm=165600  [1 threads, no Condon-Shortley phase, 4.pi normalized]
[SHTns 2.3] build Mar  5 2013, 12:23:09, id: 
        Lmax=574, Mmax*Mres=574, Mres=1, Nlm=165600  [1 threads, no Condon-Shortley phase, 4.pi normalized]
        => using FFTW : Mmax=574, Nphi=1152, Nlat=576  (data layout : phi_inc=1, theta_inc=1152, phi_embed=1152)
        => using FFTW : Mmax=574, Nphi=1152, Nlat=576  (data layout : phi_inc=1, theta_inc=1152, phi_embed=1152)
        => using FFTW : Mmax=574, Nphi=1152, Nlat=576  (data layout : phi_inc=1, theta_inc=1152, phi_embed=1152)
[SHTns 2.3] build Mar  5 2013, 12:23:09, id: 
        Lmax=574, Mmax*Mres=574, Mres=1, Nlm=165600  [1 threads, no Condon-Shortley phase, 4.pi normalized]
[SHTns 2.3] build Mar  5 2013, 12:23:09, id: 
        Lmax=574, Mmax*Mres=574, Mres=1, Nlm=165600  [1 threads, no Condon-Shortley phase, 4.pi normalized]
[SHTns 2.3] build Mar  5 2013, 12:23:09, id: 
        Lmax=574, Mmax*Mres=574, Mres=1, Nlm=165600  [1 threads, no Condon-Shortley phase, 4.pi normalized]
        => using FFTW : Mmax=574, Nphi=1152, Nlat=576  (data layout : phi_inc=1, theta_inc=1152, phi_embed=1152)
[SHTns 2.3] build Mar  5 2013, 12:23:09, id: 
        Lmax=574, Mmax*Mres=574, Mres=1, Nlm=165600  [1 threads, no Condon-Shortley phase, 4.pi normalized]
[SHTns 2.3] build Mar  5 2013, 12:23:09, id: 
        Lmax=574, Mmax*Mres=574, Mres=1, Nlm=165600  [1 threads, no Condon-Shortley phase, 4.pi normalized]
        => using FFTW : Mmax=574, Nphi=1152, Nlat=576  (data layout : phi_inc=1, theta_inc=1152, phi_embed=1152)
[SHTns 2.3] build Mar  5 2013, 12:23:09, id: 
        Lmax=574, Mmax*Mres=574, Mres=1, Nlm=165600  [1 threads, no Condon-Shortley phase, 4.pi normalized]
[SHTns 2.3] build Mar  5 2013, 12:23:09, id: 
        Lmax=574, Mmax*Mres=574, Mres=1, Nlm=165600  [1 threads, no Condon-Shortley phase, 4.pi normalized]
[SHTns 2.3] build Mar  5 2013, 12:23:09, id: 
        Lmax=574, Mmax*Mres=574, Mres=1, Nlm=165600  [1 threads, no Condon-Shortley phase, 4.pi normalized]
[SHTns 2.3] build Mar  5 2013, 12:23:09, id: 
        Lmax=574, Mmax*Mres=574, Mres=1, Nlm=165600  [1 threads, no Condon-Shortley phase, 4.pi normalized]
        => using FFTW : Mmax=574, Nphi=1152, Nlat=576  (data layout : phi_inc=1, theta_inc=1152, phi_embed=1152)
[SHTns 2.3] build Mar  5 2013, 12:23:09, id: 
        Lmax=574, Mmax*Mres=574, Mres=1, Nlm=165600  [1 threads, no Condon-Shortley phase, 4.pi normalized]
        => using FFTW : Mmax=574, Nphi=1152, Nlat=576  (data layout : phi_inc=1, theta_inc=1152, phi_embed=1152)
[SHTns 2.3] build Mar  5 2013, 12:23:09, id: 
        Lmax=574, Mmax*Mres=574, Mres=1, Nlm=165600  [1 threads, no Condon-Shortley phase, 4.pi normalized]
[SHTns 2.3] build Mar  5 2013, 12:23:09, id: 
        Lmax=574, Mmax*Mres=574, Mres=1, Nlm=165600  [1 threads, no Condon-Shortley phase, 4.pi normalized]
        => using FFTW : Mmax=574, Nphi=1152, Nlat=576  (data layout : phi_inc=1, theta_inc=1152, phi_embed=1152)
[SHTns 2.3] build Mar  5 2013, 12:23:09, id: 
        Lmax=574, Mmax*Mres=574, Mres=1, Nlm=165600  [1 threads, no Condon-Shortley phase, 4.pi normalized]
[SHTns 2.3] build Mar  5 2013, 12:23:09, id: 
        Lmax=574, Mmax*Mres=574, Mres=1, Nlm=165600  [1 threads, no Condon-Shortley phase, 4.pi normalized]
[SHTns 2.3] build Mar  5 2013, 12:23:09, id: 
        Lmax=574, Mmax*Mres=574, Mres=1, Nlm=165600  [1 threads, no Condon-Shortley phase, 4.pi normalized]
[SHTns 2.3] build Mar  5 2013, 12:23:09, id: 
        Lmax=574, Mmax*Mres=574, Mres=1, Nlm=165600  [1 threads, no Condon-Shortley phase, 4.pi normalized]
[SHTns 2.3] build Mar  5 2013, 12:23:09, id: 
        Lmax=574, Mmax*Mres=574, Mres=1, Nlm=165600  [1 threads, no Condon-Shortley phase, 4.pi normalized]
        => using FFTW : Mmax=574, Nphi=1152, Nlat=576  (data layout : phi_inc=1, theta_inc=1152, phi_embed=1152)
[SHTns 2.3] build Mar  5 2013, 12:23:09, id: 
        Lmax=574, Mmax*Mres=574, Mres=1, Nlm=165600  [1 threads, no Condon-Shortley phase, 4.pi normalized]
        => using FFTW : Mmax=574, Nphi=1152, Nlat=576  (data layout : phi_inc=1, theta_inc=1152, phi_embed=1152)
[SHTns 2.3] build Mar  5 2013, 12:23:09, id: 
        Lmax=574, Mmax*Mres=574, Mres=1, Nlm=165600  [1 threads, no Condon-Shortley phase, 4.pi normalized]
        => using FFTW : Mmax=574, Nphi=1152, Nlat=576  (data layout : phi_inc=1, theta_inc=1152, phi_embed=1152)
        => using FFTW : Mmax=574, Nphi=1152, Nlat=576  (data layout : phi_inc=1, theta_inc=1152, phi_embed=1152)
[SHTns 2.3] build Mar  5 2013, 12:23:09, id: 
        Lmax=574, Mmax*Mres=574, Mres=1, Nlm=165600  [1 threads, no Condon-Shortley phase, 4.pi normalized]
[SHTns 2.3] build Mar  5 2013, 12:23:09, id: 
        Lmax=574, Mmax*Mres=574, Mres=1, Nlm=165600  [1 threads, no Condon-Shortley phase, 4.pi normalized]
[SHTns 2.3] build Mar  5 2013, 12:23:09, id: 
        Lmax=574, Mmax*Mres=574, Mres=1, Nlm=165600  [1 threads, no Condon-Shortley phase, 4.pi normalized]
        => using FFTW : Mmax=574, Nphi=1152, Nlat=576  (data layout : phi_inc=1, theta_inc=1152, phi_embed=1152)
[SHTns 2.3] build Mar  5 2013, 12:23:09, id: 
        Lmax=574, Mmax*Mres=574, Mres=1, Nlm=165600  [1 threads, no Condon-Shortley phase, 4.pi normalized]
[SHTns 2.3] build Mar  5 2013, 12:23:09, id: 
        Lmax=574, Mmax*Mres=574, Mres=1, Nlm=165600  [1 threads, no Condon-Shortley phase, 4.pi normalized]
[SHTns 2.3] build Mar  5 2013, 12:23:09, id: 
        Lmax=574, Mmax*Mres=574, Mres=1, Nlm=165600  [1 threads, no Condon-Shortley phase, 4.pi normalized]
        => using FFTW : Mmax=574, Nphi=1152, Nlat=576  (data layout : phi_inc=1, theta_inc=1152, phi_embed=1152)
[SHTns 2.3] build Mar  5 2013, 12:23:09, id: 
        Lmax=574, Mmax*Mres=574, Mres=1, Nlm=165600  [1 threads, no Condon-Shortley phase, 4.pi normalized]
        => using FFTW : Mmax=574, Nphi=1152, Nlat=576  (data layout : phi_inc=1, theta_inc=1152, phi_embed=1152)
        => using FFTW : Mmax=574, Nphi=1152, Nlat=576  (data layout : phi_inc=1, theta_inc=1152, phi_embed=1152)
[SHTns 2.3] build Mar  5 2013, 12:23:09, id: 
        Lmax=574, Mmax*Mres=574, Mres=1, Nlm=165600  [1 threads, no Condon-Shortley phase, 4.pi normalized]
        => using FFTW : Mmax=574, Nphi=1152, Nlat=576  (data layout : phi_inc=1, theta_inc=1152, phi_embed=1152)
        => using FFTW : Mmax=574, Nphi=1152, Nlat=576  (data layout : phi_inc=1, theta_inc=1152, phi_embed=1152)
[SHTns 2.3] build Mar  5 2013, 12:23:09, id: 
        Lmax=574, Mmax*Mres=574, Mres=1, Nlm=165600  [1 threads, no Condon-Shortley phase, 4.pi normalized]
        => using FFTW : Mmax=574, Nphi=1152, Nlat=576  (data layout : phi_inc=1, theta_inc=1152, phi_embed=1152)
        => using FFTW : Mmax=574, Nphi=1152, Nlat=576  (data layout : phi_inc=1, theta_inc=1152, phi_embed=1152)
        => using FFTW : Mmax=574, Nphi=1152, Nlat=576  (data layout : phi_inc=1, theta_inc=1152, phi_embed=1152)
        => using FFTW : Mmax=574, Nphi=1152, Nlat=576  (data layout : phi_inc=1, theta_inc=1152, phi_embed=1152)
        => using FFTW : Mmax=574, Nphi=1152, Nlat=576  (data layout : phi_inc=1, theta_inc=1152, phi_embed=1152)
[SHTns 2.3] build Mar  5 2013, 12:23:09, id: 
        Lmax=574, Mmax*Mres=574, Mres=1, Nlm=165600  [1 threads, no Condon-Shortley phase, 4.pi normalized]
        => using FFTW : Mmax=574, Nphi=1152, Nlat=576  (data layout : phi_inc=1, theta_inc=1152, phi_embed=1152)
        => using FFTW : Mmax=574, Nphi=1152, Nlat=576  (data layout : phi_inc=1, theta_inc=1152, phi_embed=1152)
        => using FFTW : Mmax=574, Nphi=1152, Nlat=576  (data layout : phi_inc=1, theta_inc=1152, phi_embed=1152)
[SHTns 2.3] build Mar  5 2013, 12:23:09, id: 
        Lmax=574, Mmax*Mres=574, Mres=1, Nlm=165600  [1 threads, no Condon-Shortley phase, 4.pi normalized]
[SHTns 2.3] build Mar  5 2013, 12:23:09, id: 
        Lmax=574, Mmax*Mres=574, Mres=1, Nlm=165600  [1 threads, no Condon-Shortley phase, 4.pi normalized]
[SHTns 2.3] build Mar  5 2013, 12:23:09, id: 
        Lmax=574, Mmax*Mres=574, Mres=1, Nlm=165600  [1 threads, no Condon-Shortley phase, 4.pi normalized]
        => using FFTW : Mmax=574, Nphi=1152, Nlat=576  (data layout : phi_inc=1, theta_inc=1152, phi_embed=1152)
[SHTns 2.3] build Mar  5 2013, 12:23:09, id: 
        Lmax=574, Mmax*Mres=574, Mres=1, Nlm=165600  [1 threads, no Condon-Shortley phase, 4.pi normalized]
[SHTns 2.3] build Mar  5 2013, 12:23:09, id: 
        Lmax=574, Mmax*Mres=574, Mres=1, Nlm=165600  [1 threads, no Condon-Shortley phase, 4.pi normalized]
[SHTns 2.3] build Mar  5 2013, 12:23:09, id: 
        Lmax=574, Mmax*Mres=574, Mres=1, Nlm=165600  [1 threads, no Condon-Shortley phase, 4.pi normalized]
        => using FFTW : Mmax=574, Nphi=1152, Nlat=576  (data layout : phi_inc=1, theta_inc=1152, phi_embed=1152)
        => using FFTW : Mmax=574, Nphi=1152, Nlat=576  (data layout : phi_inc=1, theta_inc=1152, phi_embed=1152)
[SHTns 2.3] build Mar  5 2013, 12:23:09, id: 
        Lmax=574, Mmax*Mres=574, Mres=1, Nlm=165600  [1 threads, no Condon-Shortley phase, 4.pi normalized]
[SHTns 2.3] build Mar  5 2013, 12:23:09, id: 
        Lmax=574, Mmax*Mres=574, Mres=1, Nlm=165600  [1 threads, no Condon-Shortley phase, 4.pi normalized]
[SHTns 2.3] build Mar  5 2013, 12:23:09, id: 
        Lmax=574, Mmax*Mres=574, Mres=1, Nlm=165600  [1 threads, no Condon-Shortley phase, 4.pi normalized]
[SHTns 2.3] build Mar  5 2013, 12:23:09, id: 
        Lmax=574, Mmax*Mres=574, Mres=1, Nlm=165600  [1 threads, no Condon-Shortley phase, 4.pi normalized]
[SHTns 2.3] build Mar  5 2013, 12:23:09, id: 
        Lmax=574, Mmax*Mres=574, Mres=1, Nlm=165600  [1 threads, no Condon-Shortley phase, 4.pi normalized]
        => using FFTW : Mmax=574, Nphi=1152, Nlat=576  (data layout : phi_inc=1, theta_inc=1152, phi_embed=1152)
[SHTns 2.3] build Mar  5 2013, 12:23:09, id: 
        Lmax=574, Mmax*Mres=574, Mres=1, Nlm=165600  [1 threads, no Condon-Shortley phase, 4.pi normalized]
[SHTns 2.3] build Mar  5 2013, 12:23:09, id: 
        Lmax=574, Mmax*Mres=574, Mres=1, Nlm=165600  [1 threads, no Condon-Shortley phase, 4.pi normalized]
[SHTns 2.3] build Mar  5 2013, 12:23:09, id: 
        Lmax=574, Mmax*Mres=574, Mres=1, Nlm=165600  [1 threads, no Condon-Shortley phase, 4.pi normalized]
[SHTns 2.3] build Mar  5 2013, 12:23:09, id: 
        Lmax=574, Mmax*Mres=574, Mres=1, Nlm=165600  [1 threads, no Condon-Shortley phase, 4.pi normalized]
[SHTns 2.3] build Mar  5 2013, 12:23:09, id: 
        Lmax=574, Mmax*Mres=574, Mres=1, Nlm=165600  [1 threads, no Condon-Shortley phase, 4.pi normalized]
[SHTns 2.3] build Mar  5 2013, 12:23:09, id: 
        Lmax=574, Mmax*Mres=574, Mres=1, Nlm=165600  [1 threads, no Condon-Shortley phase, 4.pi normalized]
        => using FFTW : Mmax=574, Nphi=1152, Nlat=576  (data layout : phi_inc=1, theta_inc=1152, phi_embed=1152)
        => using FFTW : Mmax=574, Nphi=1152, Nlat=576  (data layout : phi_inc=1, theta_inc=1152, phi_embed=1152)
[SHTns 2.3] build Mar  5 2013, 12:23:09, id: 
        Lmax=574, Mmax*Mres=574, Mres=1, Nlm=165600  [1 threads, no Condon-Shortley phase, 4.pi normalized]
[SHTns 2.3] build Mar  5 2013, 12:23:09, id: 
        Lmax=574, Mmax*Mres=574, Mres=1, Nlm=165600  [1 threads, no Condon-Shortley phase, 4.pi normalized]
        => using FFTW : Mmax=574, Nphi=1152, Nlat=576  (data layout : phi_inc=1, theta_inc=1152, phi_embed=1152)
        => using FFTW : Mmax=574, Nphi=1152, Nlat=576  (data layout : phi_inc=1, theta_inc=1152, phi_embed=1152)
[SHTns 2.3] build Mar  5 2013, 12:23:09, id: 
        Lmax=574, Mmax*Mres=574, Mres=1, Nlm=165600  [1 threads, no Condon-Shortley phase, 4.pi normalized]
[SHTns 2.3] build Mar  5 2013, 12:23:09, id: 
        Lmax=574, Mmax*Mres=574, Mres=1, Nlm=165600  [1 threads, no Condon-Shortley phase, 4.pi normalized]
        => using FFTW : Mmax=574, Nphi=1152, Nlat=576  (data layout : phi_inc=1, theta_inc=1152, phi_embed=1152)
        => using FFTW : Mmax=574, Nphi=1152, Nlat=576  (data layout : phi_inc=1, theta_inc=1152, phi_embed=1152)
[SHTns 2.3] build Mar  5 2013, 12:23:09, id: 
        Lmax=574, Mmax*Mres=574, Mres=1, Nlm=165600  [1 threads, no Condon-Shortley phase, 4.pi normalized]
[SHTns 2.3] build Mar  5 2013, 12:23:09, id: 
        Lmax=574, Mmax*Mres=574, Mres=1, Nlm=165600  [1 threads, no Condon-Shortley phase, 4.pi normalized]
[SHTns 2.3] build Mar  5 2013, 12:23:09, id: 
        Lmax=574, Mmax*Mres=574, Mres=1, Nlm=165600  [1 threads, no Condon-Shortley phase, 4.pi normalized]
[SHTns 2.3] build Mar  5 2013, 12:23:09, id: 
        Lmax=574, Mmax*Mres=574, Mres=1, Nlm=165600  [1 threads, no Condon-Shortley phase, 4.pi normalized]
[SHTns 2.3] build Mar  5 2013, 12:23:09, id: 
        Lmax=574, Mmax*Mres=574, Mres=1, Nlm=165600  [1 threads, no Condon-Shortley phase, 4.pi normalized]
[SHTns 2.3] build Mar  5 2013, 12:23:09, id: 
        Lmax=574, Mmax*Mres=574, Mres=1, Nlm=165600  [1 threads, no Condon-Shortley phase, 4.pi normalized]
[SHTns 2.3] build Mar  5 2013, 12:23:09, id: 
        Lmax=574, Mmax*Mres=574, Mres=1, Nlm=165600  [1 threads, no Condon-Shortley phase, 4.pi normalized]
[SHTns 2.3] build Mar  5 2013, 12:23:09, id: 
        Lmax=574, Mmax*Mres=574, Mres=1, Nlm=165600  [1 threads, no Condon-Shortley phase, 4.pi normalized]
[SHTns 2.3] build Mar  5 2013, 12:23:09, id: 
        Lmax=574, Mmax*Mres=574, Mres=1, Nlm=165600  [1 threads, no Condon-Shortley phase, 4.pi normalized]
[SHTns 2.3] build Mar  5 2013, 12:23:09, id: 
        Lmax=574, Mmax*Mres=574, Mres=1, Nlm=165600  [1 threads, no Condon-Shortley phase, 4.pi normalized]
[SHTns 2.3] build Mar  5 2013, 12:23:09, id: 
        Lmax=574, Mmax*Mres=574, Mres=1, Nlm=165600  [1 threads, no Condon-Shortley phase, 4.pi normalized]
        => using FFTW : Mmax=574, Nphi=1152, Nlat=576  (data layout : phi_inc=1, theta_inc=1152, phi_embed=1152)
[SHTns 2.3] build Mar  5 2013, 12:23:09, id: 
        Lmax=574, Mmax*Mres=574, Mres=1, Nlm=165600  [1 threads, no Condon-Shortley phase, 4.pi normalized]
[SHTns 2.3] build Mar  5 2013, 12:23:09, id: 
        Lmax=574, Mmax*Mres=574, Mres=1, Nlm=165600  [1 threads, no Condon-Shortley phase, 4.pi normalized]
[SHTns 2.3] build Mar  5 2013, 12:23:09, id: 
        Lmax=574, Mmax*Mres=574, Mres=1, Nlm=165600  [1 threads, no Condon-Shortley phase, 4.pi normalized]
[SHTns 2.3] build Mar  5 2013, 12:23:09, id: 
        Lmax=574, Mmax*Mres=574, Mres=1, Nlm=165600  [1 threads, no Condon-Shortley phase, 4.pi normalized]
[SHTns 2.3] build Mar  5 2013, 12:23:09, id: 
        Lmax=574, Mmax*Mres=574, Mres=1, Nlm=165600  [1 threads, no Condon-Shortley phase, 4.pi normalized]
[SHTns 2.3] build Mar  5 2013, 12:23:09, id: 
        Lmax=574, Mmax*Mres=574, Mres=1, Nlm=165600  [1 threads, no Condon-Shortley phase, 4.pi normalized]
[SHTns 2.3] build Mar  5 2013, 12:23:09, id: 
        Lmax=574, Mmax*Mres=574, Mres=1, Nlm=165600  [1 threads, no Condon-Shortley phase, 4.pi normalized]
[SHTns 2.3] build Mar  5 2013, 12:23:09, id: 
        Lmax=574, Mmax*Mres=574, Mres=1, Nlm=165600  [1 threads, no Condon-Shortley phase, 4.pi normalized]
[SHTns 2.3] build Mar  5 2013, 12:23:09, id: 
        Lmax=574, Mmax*Mres=574, Mres=1, Nlm=165600  [1 threads, no Condon-Shortley phase, 4.pi normalized]
[SHTns 2.3] build Mar  5 2013, 12:23:09, id: 
        Lmax=574, Mmax*Mres=574, Mres=1, Nlm=165600  [1 threads, no Condon-Shortley phase, 4.pi normalized]
        => using FFTW : Mmax=574, Nphi=1152, Nlat=576  (data layout : phi_inc=1, theta_inc=1152, phi_embed=1152)
[SHTns 2.3] build Mar  5 2013, 12:23:09, id: 
        Lmax=574, Mmax*Mres=574, Mres=1, Nlm=165600  [1 threads, no Condon-Shortley phase, 4.pi normalized]
[SHTns 2.3] build Mar  5 2013, 12:23:09, id: 
        Lmax=574, Mmax*Mres=574, Mres=1, Nlm=165600  [1 threads, no Condon-Shortley phase, 4.pi normalized]
[SHTns 2.3] build Mar  5 2013, 12:23:09, id: 
        Lmax=574, Mmax*Mres=574, Mres=1, Nlm=165600  [1 threads, no Condon-Shortley phase, 4.pi normalized]
        => using FFTW : Mmax=574, Nphi=1152, Nlat=576  (data layout : phi_inc=1, theta_inc=1152, phi_embed=1152)
        => using FFTW : Mmax=574, Nphi=1152, Nlat=576  (data layout : phi_inc=1, theta_inc=1152, phi_embed=1152)
        => using FFTW : Mmax=574, Nphi=1152, Nlat=576  (data layout : phi_inc=1, theta_inc=1152, phi_embed=1152)
        => using FFTW : Mmax=574, Nphi=1152, Nlat=576  (data layout : phi_inc=1, theta_inc=1152, phi_embed=1152)
        => using FFTW : Mmax=574, Nphi=1152, Nlat=576  (data layout : phi_inc=1, theta_inc=1152, phi_embed=1152)
        => using FFTW : Mmax=574, Nphi=1152, Nlat=576  (data layout : phi_inc=1, theta_inc=1152, phi_embed=1152)
        => using FFTW : Mmax=574, Nphi=1152, Nlat=576  (data layout : phi_inc=1, theta_inc=1152, phi_embed=1152)
        => using FFTW : Mmax=574, Nphi=1152, Nlat=576  (data layout : phi_inc=1, theta_inc=1152, phi_embed=1152)
        => using FFTW : Mmax=574, Nphi=1152, Nlat=576  (data layout : phi_inc=1, theta_inc=1152, phi_embed=1152)
        => using FFTW : Mmax=574, Nphi=1152, Nlat=576  (data layout : phi_inc=1, theta_inc=1152, phi_embed=1152)
        => using FFTW : Mmax=574, Nphi=1152, Nlat=576  (data layout : phi_inc=1, theta_inc=1152, phi_embed=1152)
        => using FFTW : Mmax=574, Nphi=1152, Nlat=576  (data layout : phi_inc=1, theta_inc=1152, phi_embed=1152)
        => using FFTW : Mmax=574, Nphi=1152, Nlat=576  (data layout : phi_inc=1, theta_inc=1152, phi_embed=1152)
[SHTns 2.3] build Mar  5 2013, 12:23:09, id: 
        Lmax=574, Mmax*Mres=574, Mres=1, Nlm=165600  [1 threads, no Condon-Shortley phase, 4.pi normalized]
        => using FFTW : Mmax=574, Nphi=1152, Nlat=576  (data layout : phi_inc=1, theta_inc=1152, phi_embed=1152)
        => using FFTW : Mmax=574, Nphi=1152, Nlat=576  (data layout : phi_inc=1, theta_inc=1152, phi_embed=1152)
        => using FFTW : Mmax=574, Nphi=1152, Nlat=576  (data layout : phi_inc=1, theta_inc=1152, phi_embed=1152)
        => using FFTW : Mmax=574, Nphi=1152, Nlat=576  (data layout : phi_inc=1, theta_inc=1152, phi_embed=1152)
        => using FFTW : Mmax=574, Nphi=1152, Nlat=576  (data layout : phi_inc=1, theta_inc=1152, phi_embed=1152)
        => using FFTW : Mmax=574, Nphi=1152, Nlat=576  (data layout : phi_inc=1, theta_inc=1152, phi_embed=1152)
        => using FFTW : Mmax=574, Nphi=1152, Nlat=576  (data layout : phi_inc=1, theta_inc=1152, phi_embed=1152)
        => using FFTW : Mmax=574, Nphi=1152, Nlat=576  (data layout : phi_inc=1, theta_inc=1152, phi_embed=1152)
        => using FFTW : Mmax=574, Nphi=1152, Nlat=576  (data layout : phi_inc=1, theta_inc=1152, phi_embed=1152)
        => using FFTW : Mmax=574, Nphi=1152, Nlat=576  (data layout : phi_inc=1, theta_inc=1152, phi_embed=1152)
        => using FFTW : Mmax=574, Nphi=1152, Nlat=576  (data layout : phi_inc=1, theta_inc=1152, phi_embed=1152)
        => using FFTW : Mmax=574, Nphi=1152, Nlat=576  (data layout : phi_inc=1, theta_inc=1152, phi_embed=1152)
        => using FFTW : Mmax=574, Nphi=1152, Nlat=576  (data layout : phi_inc=1, theta_inc=1152, phi_embed=1152)
        => using FFTW : Mmax=574, Nphi=1152, Nlat=576  (data layout : phi_inc=1, theta_inc=1152, phi_embed=1152)
        => using FFTW : Mmax=574, Nphi=1152, Nlat=576  (data layout : phi_inc=1, theta_inc=1152, phi_embed=1152)
        => using FFTW : Mmax=574, Nphi=1152, Nlat=576  (data layout : phi_inc=1, theta_inc=1152, phi_embed=1152)
        => using FFTW : Mmax=574, Nphi=1152, Nlat=576  (data layout : phi_inc=1, theta_inc=1152, phi_embed=1152)
        => using FFTW : Mmax=574, Nphi=1152, Nlat=576  (data layout : phi_inc=1, theta_inc=1152, phi_embed=1152)
        => using FFTW : Mmax=574, Nphi=1152, Nlat=576  (data layout : phi_inc=1, theta_inc=1152, phi_embed=1152)
        => using FFTW : Mmax=574, Nphi=1152, Nlat=576  (data layout : phi_inc=1, theta_inc=1152, phi_embed=1152)
        => using FFTW : Mmax=574, Nphi=1152, Nlat=576  (data layout : phi_inc=1, theta_inc=1152, phi_embed=1152)